-------------------------------------------------------
          Amber 16 PMEMD                              2016
          -------------------------------------------------------

  [-O]verwriting output

File Assignments:

 Here is the input file:

Equilibration with solute restrictions
&cntrl
imin = 0,                           ! No Minimization
nmropt = 0,                         ! No NMR restraints read

! Nature and format of the input
ntx = 5,                            ! Coordinates but no velocities will be rea
irest = 1,                          ! Do not run a new simulation

! Nature and format of the output
ntxo = 1,                           ! rstrt file in ASCII format
ntpr = 500,                         ! inf in output every ntpr steps
ntwr = 500,                         ! rstrt file every ntwr steps
ntwx = 500,                         ! mdcrd file every ntwx steps
ntwv = 0,                           ! mdvel without velocities
ntwe = 0,                           ! Energies and temperatures not written in
idecomp = 0,                        ! No energy decomposition
iwrap = 1,                          ! Coordinates of the restart and mdcrd file

! Frozen or restrained atoms
ibelly = 0,                         ! No frozen atoms
ntr=1,                              ! Harmonic potential restraints
restraint_wt = 9.0,                ! The weight for the positional restraints
restraintmask = ':1-120@N,CA,C,O',  ! restrained residues

! Molecular dynamics
nstlim = 50000,                     ! Number of MD-steps
dt = 0.002,                         ! Time step

! Temperature regulation
ntt = 3,                            ! Langevin thermostat
gamma_ln = 5,                       ! Gamma constant for Langevin
!temp0 = 300.0,                     ! Reference T at which the system is to be
tempi = 300.0,                      ! Initial T
ig = -1,                            ! Seed for the RNG

! P and V regulation
ntp = 1,                            ! Constant P. Isotropic scaling
barostat = 1,                       ! Berendsen barostat
taup = 1,                           ! Pressure relaxation time
nrespa = 1,                         ! Evaluate at each step
ntb = 2,                            ! Periodic box for constant P

! SHAKE variables
ntc = 2,                            ! Bonds involving H are constrained
ntf = 2,                            ! Bond interaction involving H are ommited.

cut = 10.0,                         ! Nonbonded cutoff
/
&end

Note: ig = -1. Setting random seed to   292741 based on wallclock time in
      microseconds.

--------------------------------------------------------------------------------
   1.  RESOURCE   USE:
--------------------------------------------------------------------------------

 getting new box info from bottom of inpcrd
 NATOM  =   17712 NTYPES =      18 NBONH =   16754 MBONA  =     963
 NTHETH =    2242 MTHETA =    1293 NPHIH =    4367 MPHIA  =    4396
 NHPARM =       0 NPARM  =       0 NNB   =   31725 NRES   =    5382
 NBONA  =     963 NTHETA =    1293 NPHIA =    4396 NUMBND =      72
 NUMANG =     151 NPTRA  =     245 NATYP =      42 NPHB   =       1
 IFBOX  =       1 NMXRS  =      24 IFCAP =       0 NEXTRA =       0
 NCOPY  =       0

     BOX TYPE: RECTILINEAR

--------------------------------------------------------------------------------
   2.  CONTROL  DATA  FOR  THE  RUN
--------------------------------------------------------------------------------

default_name

General flags:
     imin    =       0, nmropt  =       0

Nature and format of input:
     ntx     =       5, irest   =       1, ntrx    =       1

Nature and format of output:
     ntxo    =       1, ntpr    =     500, ntrx    =       1, ntwr    =     500
     iwrap   =       1, ntwx    =     500, ntwv    =       0, ntwe    =       0
     ioutfm  =       1, ntwprt  =       0, idecomp =       0, rbornstat=      0

Potential function:
     ntf     =       2, ntb     =       2, igb     =       0, nsnb    =      25
     ipol    =       0, gbsa    =       0, iesp    =       0
     dielc   =   1.00000, cut     =  10.00000, intdiel =   1.00000

Frozen or restrained atoms:
     ibelly  =       0, ntr     =       1
     restraint_wt =   9.00000

Molecular dynamics:
     nstlim  =     50000, nscm    =         0, nrespa  =         1
     t       =   0.00000, dt      =   0.00200, vlimit  =  -1.00000

Langevin dynamics temperature regulation:
     ig      =  292741
     temp0   = 300.00000, tempi   = 300.00000, gamma_ln=   5.00000

Pressure regulation:
     ntp     =       1
     pres0   =   1.00000, comp    =  44.60000, taup    =   1.00000

SHAKE:
     ntc     =       2, jfastw  =       0
     tol     =   0.00001

Ewald parameters:
     verbose =       0, ew_type =       0, nbflag  =       1, use_pme =       1
     vdwmeth =       1, eedmeth =       1, netfrc  =       1
     Box X =   56.807   Box Y =   58.798   Box Z =   52.715
     Alpha =   90.000   Beta  =   90.000   Gamma =   90.000
     NFFT1 =   64       NFFT2 =   64       NFFT3 =   56
     Cutoff=   10.000   Tol   =0.100E-04
     Ewald Coefficient =  0.27511
     Interpolation order =    4

    LOADING THE CONSTRAINED ATOMS AS GROUPS

   5.  REFERENCE ATOM COORDINATES

  default_name
     Mask :1-120@N,CA,C,O; matches   476 atoms

--------------------------------------------------------------------------------
   3.  ATOMIC COORDINATES AND VELOCITIES
--------------------------------------------------------------------------------

default_name
 begin time read from input coords =   740.000 ps

 Number of triangulated 3-point waters found:     5259

     Sum of charges from parm topology file =  -0.00000007
     Forcing neutrality...

--------------------------------------------------------------------------------
   4.  RESULTS
 NSTEP =      500   TIME(PS) =     741.000  TEMP(K) =   301.40  PRESS =   -43.5
 Etot   =    -42343.5166  EKtot   =     10895.1543  EPtot      =    -53238.6709
 BOND   =       341.9988  ANGLE   =       993.9007  DIHED      =      2166.0675
 1-4 NB =       448.2948  1-4 EEL =      6200.8249  VDWAALS    =      6189.1961
 EELEC  =    -69683.7508  EHBOND  =         0.0000  RESTRAINT  =       104.7970
 EAMBER (non-restraint)  =    -53343.4679
 EKCMT  =      4769.5207  VIRIAL  =      4934.6224  VOLUME     =    175668.7859
                                                    Density    =         1.0257
 ------------------------------------------------------------------------------

      A V E R A G E S   O V E R     100 S T E P S

 NSTEP =    50000   TIME(PS) =     840.000  TEMP(K) =   299.75  PRESS =     4.1
 Etot   =    -42416.1627  EKtot   =     10835.5609  EPtot      =    -53251.7236
 BOND   =       346.7072  ANGLE   =       991.7131  DIHED      =      2169.3434
 1-4 NB =       451.9003  1-4 EEL =      6208.6168  VDWAALS    =      6309.1531
 EELEC  =    -69838.0235  EHBOND  =         0.0000  RESTRAINT  =       108.8661
 EAMBER (non-restraint)  =    -53360.5897
 EKCMT  =      4712.5571  VIRIAL  =      4696.9536  VOLUME     =    176143.4246
                                                    Density    =         1.0229
 ------------------------------------------------------------------------------

      R M S  F L U C T U A T I O N S

 NSTEP =    50000   TIME(PS) =     840.000  TEMP(K) =     2.12  PRESS =   154.3
 Etot   =       147.8796  EKtot   =        76.8051  EPtot      =       115.3477
 BOND   =        15.3687  ANGLE   =        26.8928  DIHED      =        12.1982
 1-4 NB =         7.8093  1-4 EEL =        18.7935  VDWAALS    =        94.5049
 EELEC  =       163.4082  EHBOND  =         0.0000  RESTRAINT  =         6.2394
 EAMBER (non-restraint)  =       109.1084
 EKCMT  =        56.9752  VIRIAL  =       586.3659  VOLUME     =       299.4127
                                                    Density    =         0.0017
 ------------------------------------------------------------------------------
