-------------------------------------------------------
          Amber 16 PMEMD                              2016
          -------------------------------------------------------

  [-O]verwriting output

File Assignments:

 Here is the input file:

Equilibration with solute restrictions
&cntrl
imin = 0,                           ! No Minimization
nmropt = 0,                         ! No NMR restraints read

! Nature and format of the input
ntx = 5,                            ! Coordinates but no velocities will be rea
irest = 1,                          ! Do not run a new simulation

! Nature and format of the output
ntxo = 1,                           ! rstrt file in ASCII format
ntpr = 500,                         ! inf in output every ntpr steps
ntwr = 500,                         ! rstrt file every ntwr steps
ntwx = 500,                         ! mdcrd file every ntwx steps
ntwv = 0,                           ! mdvel without velocities
ntwe = 0,                           ! Energies and temperatures not written in
idecomp = 0,                        ! No energy decomposition
iwrap = 1,                          ! Coordinates of the restart and mdcrd file

! Frozen or restrained atoms
ibelly = 0,                         ! No frozen atoms
ntr=1,                              ! Harmonic potential restraints
restraint_wt = 2.0,                ! The weight for the positional restraints
restraintmask = ':1-119@N,CA,C,O',  ! restrained residues

! Molecular dynamics
nstlim = 50000,                     ! Number of MD-steps
dt = 0.002,                         ! Time step

! Temperature regulation
ntt = 3,                            ! Langevin thermostat
gamma_ln = 5,                       ! Gamma constant for Langevin
!temp0 = 300.0,                     ! Reference T at which the system is to be
tempi = 300.0,                      ! Initial T
ig = -1,                            ! Seed for the RNG

! P and V regulation
ntp = 1,                            ! Constant P. Isotropic scaling
barostat = 1,                       ! Berendsen barostat
taup = 1,                           ! Pressure relaxation time
nrespa = 1,                         ! Evaluate at each step
ntb = 2,                            ! Periodic box for constant P

! SHAKE variables
ntc = 2,                            ! Bonds involving H are constrained
ntf = 2,                            ! Bond interaction involving H are ommited.

cut = 10.0,                         ! Nonbonded cutoff
/
&end

Note: ig = -1. Setting random seed to   765575 based on wallclock time in
      microseconds.

--------------------------------------------------------------------------------
   1.  RESOURCE   USE:
--------------------------------------------------------------------------------

 getting new box info from bottom of inpcrd
 NATOM  =   18031 NTYPES =      17 NBONH =   17092 MBONA  =     943
 NTHETH =    2205 MTHETA =    1267 NPHIH =    4292 MPHIA  =    4346
 NHPARM =       0 NPARM  =       0 NNB   =   32012 NRES   =    5500
 NBONA  =     943 NTHETA =    1267 NPHIA =    4346 NUMBND =      60
 NUMANG =     134 NPTRA  =     240 NATYP =      33 NPHB   =       1
 IFBOX  =       1 NMXRS  =      24 IFCAP =       0 NEXTRA =       0
 NCOPY  =       0

     BOX TYPE: RECTILINEAR

--------------------------------------------------------------------------------
   2.  CONTROL  DATA  FOR  THE  RUN
--------------------------------------------------------------------------------

default_name

General flags:
     imin    =       0, nmropt  =       0

Nature and format of input:
     ntx     =       5, irest   =       1, ntrx    =       1

Nature and format of output:
     ntxo    =       1, ntpr    =     500, ntrx    =       1, ntwr    =     500
     iwrap   =       1, ntwx    =     500, ntwv    =       0, ntwe    =       0
     ioutfm  =       1, ntwprt  =       0, idecomp =       0, rbornstat=      0

Potential function:
     ntf     =       2, ntb     =       2, igb     =       0, nsnb    =      25
     ipol    =       0, gbsa    =       0, iesp    =       0
     dielc   =   1.00000, cut     =  10.00000, intdiel =   1.00000

Frozen or restrained atoms:
     ibelly  =       0, ntr     =       1
     restraint_wt =   2.00000

Molecular dynamics:
     nstlim  =     50000, nscm    =         0, nrespa  =         1
     t       =   0.00000, dt      =   0.00200, vlimit  =  -1.00000

Langevin dynamics temperature regulation:
     ig      =  765575
     temp0   = 300.00000, tempi   = 300.00000, gamma_ln=   5.00000

Pressure regulation:
     ntp     =       1
     pres0   =   1.00000, comp    =  44.60000, taup    =   1.00000

SHAKE:
     ntc     =       2, jfastw  =       0
     tol     =   0.00001

Ewald parameters:
     verbose =       0, ew_type =       0, nbflag  =       1, use_pme =       1
     vdwmeth =       1, eedmeth =       1, netfrc  =       1
     Box X =   55.186   Box Y =   62.268   Box Z =   52.289
     Alpha =   90.000   Beta  =   90.000   Gamma =   90.000
     NFFT1 =   56       NFFT2 =   64       NFFT3 =   56
     Cutoff=   10.000   Tol   =0.100E-04
     Ewald Coefficient =  0.27511
     Interpolation order =    4

    LOADING THE CONSTRAINED ATOMS AS GROUPS

   5.  REFERENCE ATOM COORDINATES

  default_name
     Mask :1-119@N,CA,C,O; matches   476 atoms

--------------------------------------------------------------------------------
   3.  ATOMIC COORDINATES AND VELOCITIES
--------------------------------------------------------------------------------

default_name
 begin time read from input coords =  1486.000 ps

 Number of triangulated 3-point waters found:     5378

     Sum of charges from parm topology file =  -0.00000006
     Forcing neutrality...

--------------------------------------------------------------------------------
   4.  RESULTS
 NSTEP =      500   TIME(PS) =    1487.000  TEMP(K) =   299.45  PRESS =    59.6
 Etot   =    -43437.5395  EKtot   =     11008.8672  EPtot      =    -54446.4067
 BOND   =       363.7077  ANGLE   =       959.6239  DIHED      =      2123.2039
 1-4 NB =       443.6458  1-4 EEL =      6170.5994  VDWAALS    =      6569.5068
 EELEC  =    -71131.0052  EHBOND  =         0.0000  RESTRAINT  =        54.3109
 EAMBER (non-restraint)  =    -54500.7176
 EKCMT  =      4810.5822  VIRIAL  =      4579.1623  VOLUME     =    179746.0020
                                                    Density    =         1.0202
 ------------------------------------------------------------------------------

      A V E R A G E S   O V E R     100 S T E P S

 NSTEP =    50000   TIME(PS) =    1586.000  TEMP(K) =   300.01  PRESS =   -14.5
 Etot   =    -43307.6410  EKtot   =     11029.4214  EPtot      =    -54337.0625
 BOND   =       350.3205  ANGLE   =       977.4474  DIHED      =      2122.5945
 1-4 NB =       439.6790  1-4 EEL =      6175.9857  VDWAALS    =      6505.3528
 EELEC  =    -70968.2193  EHBOND  =         0.0000  RESTRAINT  =        59.7769
 EAMBER (non-restraint)  =    -54396.8394
 EKCMT  =      4819.8401  VIRIAL  =      4875.8967  VOLUME     =    179704.6622
                                                    Density    =         1.0204
 ------------------------------------------------------------------------------

      R M S  F L U C T U A T I O N S

 NSTEP =    50000   TIME(PS) =    1586.000  TEMP(K) =     2.29  PRESS =   181.1
 Etot   =       139.0070  EKtot   =        84.3660  EPtot      =       113.2309
 BOND   =        14.8354  ANGLE   =        23.9354  DIHED      =        12.2317
 1-4 NB =         9.0505  1-4 EEL =        20.9153  VDWAALS    =       105.5478
 EELEC  =       169.5271  EHBOND  =         0.0000  RESTRAINT  =         4.1918
 EAMBER (non-restraint)  =       109.0391
 EKCMT  =        47.5742  VIRIAL  =       699.3995  VOLUME     =       404.5036
                                                    Density    =         0.0023
 ------------------------------------------------------------------------------
